<?xml version="1.0" encoding="UTF-8"?>

<vehicleDefinitions xmlns="http://www.matsim.org/files/dtd"
 xmlns:xsi="http://www.w3.org/2001/XMLSchema-instance"
 xsi:schemaLocation="http://www.matsim.org/files/dtd http://www.matsim.org/files/dtd/vehicleDefinitions_v2.0.xsd">
	<vehicleType id="car_average">
		<length meter="7.5"/>
		<width meter="1.0"/>
		<engineInformation>
			<attributes>
				<attribute name="HbefaVehicleCategory" class="java.lang.String">PASSENGER_CAR</attribute>
				<attribute name="HbefaTechnology" class="java.lang.String">average</attribute>
				<attribute name="HbefaSizeClass" class="java.lang.String">average</attribute>
				<attribute name="HbefaEmissionsConcept" class="java.lang.String">average</attribute>
			</attributes>
		</engineInformation>
	</vehicleType>

	<vehicleType id="car_petrol">
		<length meter="7.5"/>
		<width meter="1.0"/>
		<engineInformation>
			<attributes>
				<attribute name="HbefaVehicleCategory" class="java.lang.String">PASSENGER_CAR</attribute>
				<attribute name="HbefaTechnology" class="java.lang.String">petrol (4S)</attribute>
				<attribute name="HbefaSizeClass" class="java.lang.String">&gt;=2L</attribute>
				<attribute name="HbefaEmissionsConcept" class="java.lang.String">PC-P-Euro-1</attribute>
			</attributes>
		</engineInformation>
	</vehicleType>

	<vehicleType id="car_diesel">
		<length meter="7.5"/>
		<width meter="1.0"/>
		<engineInformation>
			<attributes>
				<attribute name="HbefaVehicleCategory" class="java.lang.String">PASSENGER_CAR</attribute>
				<attribute name="HbefaTechnology" class="java.lang.String">diesel</attribute>
				<attribute name="HbefaSizeClass" class="java.lang.String">&lt;1,4L</attribute>
				<attribute name="HbefaEmissionsConcept" class="java.lang.String">PC-D-Euro-3</attribute>
			</attributes>
		</engineInformation>
	</vehicleType>

	<vehicleType id="truck">
		<description>
			BEGIN_EMISSIONSHEAVY_GOODS_VEHICLE;average;average;averageEND_EMISSIONS
		</description>
		<length meter="7.5"/>
		<width meter="1.0"/>
		<engineInformation>
			<attributes>
				<attribute name="HbefaVehicleCategory" class="java.lang.String">HEAVY_GOODS_VEHICLE</attribute>
				<attribute name="HbefaTechnology" class="java.lang.String">average</attribute>
				<attribute name="HbefaSizeClass" class="java.lang.String">average</attribute>
				<attribute name="HbefaEmissionsConcept" class="java.lang.String">average</attribute>
			</attributes>
		</engineInformation>
	</vehicleType>


	<vehicle id="9797867_9797867_9" type="car_average"/>
	<vehicle id="9797867_9797867_8" type="car_average"/>
	<vehicle id="9797867_9797867_7" type="car_average"/>
	<vehicle id="9797867_9797867_6" type="car_average"/>
	<vehicle id="9797867_9797867_5" type="car_average"/>
	<vehicle id="9797867_9797867_4" type="car_average"/>
	<vehicle id="9797867_9797867_33" type="car_average"/>
	<vehicle id="9797867_9797867_32" type="car_average"/>
	<vehicle id="9797867_9797867_31" type="car_average"/>
	<vehicle id="9797867_9797867_30" type="car_average"/>
	<vehicle id="9797867_9797867_3" type="car_average"/>
	<vehicle id="9797867_9797867_29" type="car_average"/>
	<vehicle id="9797867_9797867_28" type="car_average"/>
	<vehicle id="9797867_9797867_27" type="car_average"/>
	<vehicle id="9797867_9797867_26" type="car_average"/>
	<vehicle id="9797867_9797867_25" type="car_average"/>
	<vehicle id="9797867_9797867_24" type="car_average"/>
	<vehicle id="9797867_9797867_23" type="car_average"/>
	<vehicle id="9797867_9797867_22" type="car_average"/>
	<vehicle id="9797867_9797867_21" type="car_average"/>
	<vehicle id="9797867_9797867_20" type="car_average"/>
	<vehicle id="9797867_9797867_2" type="car_average"/>
	<vehicle id="9797867_9797867_19" type="car_average"/>
	<vehicle id="9797867_9797867_18" type="car_average"/>
	<vehicle id="9797867_9797867_17" type="car_average"/>
	<vehicle id="9797867_9797867_16" type="car_average"/>
	<vehicle id="9797867_9797867_15" type="car_average"/>
	<vehicle id="9797867_9797867_14" type="car_average"/>
	<vehicle id="9797867_9797867_13" type="car_average"/>
	<vehicle id="9797867_9797867_12" type="car_average"/>
	<vehicle id="9797867_9797867_11" type="car_average"/>
	<vehicle id="9797867_9797867_10" type="car_average"/>
	<vehicle id="9797867_9797867_1" type="car_average"/>
	<vehicle id="9797867_9797867_0" type="car_average"/>
	<vehicle id="9797866_9797866_9" type="car_average"/>
	<vehicle id="9797866_9797866_8" type="car_average"/>
	<vehicle id="9797866_9797866_7" type="car_average"/>
	<vehicle id="9797866_9797866_6" type="car_average"/>
	<vehicle id="9797866_9797866_5" type="car_average"/>
	<vehicle id="9797866_9797866_4" type="car_average"/>
	<vehicle id="9797866_9797866_33" type="car_average"/>
	<vehicle id="9797866_9797866_32" type="car_average"/>
	<vehicle id="9797866_9797866_31" type="car_average"/>
	<vehicle id="9797866_9797866_30" type="car_average"/>
	<vehicle id="9797866_9797866_3" type="car_average"/>
	<vehicle id="9797866_9797866_29" type="car_average"/>
	<vehicle id="9797866_9797866_28" type="car_average"/>
	<vehicle id="9797866_9797866_27" type="car_average"/>
	<vehicle id="9797866_9797866_26" type="car_average"/>
	<vehicle id="9797866_9797866_25" type="car_average"/>
	<vehicle id="9797866_9797866_24" type="car_average"/>
	<vehicle id="9797866_9797866_23" type="car_average"/>
	<vehicle id="9797866_9797866_22" type="car_average"/>
	<vehicle id="9797866_9797866_21" type="car_average"/>
	<vehicle id="9797866_9797866_20" type="car_average"/>
	<vehicle id="9797866_9797866_2" type="car_average"/>
	<vehicle id="9797866_9797866_19" type="car_average"/>
	<vehicle id="9797866_9797866_18" type="car_average"/>
	<vehicle id="9797866_9797866_17" type="car_average"/>
	<vehicle id="9797866_9797866_16" type="car_average"/>
	<vehicle id="9797866_9797866_15" type="car_average"/>
	<vehicle id="9797866_9797866_14" type="car_average"/>
	<vehicle id="9797866_9797866_13" type="car_average"/>
	<vehicle id="9797866_9797866_12" type="car_average"/>
	<vehicle id="9797866_9797866_11" type="car_average"/>
	<vehicle id="9797866_9797866_10" type="car_average"/>
	<vehicle id="9797866_9797866_1" type="car_average"/>
	<vehicle id="9797866_9797866_0" type="car_average"/>
	<vehicle id="9797865_9797865_9" type="car_average"/>
	<vehicle id="9797865_9797865_8" type="car_average"/>
	<vehicle id="9797865_9797865_7" type="car_average"/>
	<vehicle id="9797865_9797865_6" type="car_average"/>
	<vehicle id="9797865_9797865_5" type="car_average"/>
	<vehicle id="9797865_9797865_4" type="car_average"/>
	<vehicle id="9797865_9797865_33" type="car_average"/>
	<vehicle id="9797865_9797865_32" type="car_average"/>
	<vehicle id="9797865_9797865_31" type="car_average"/>
	<vehicle id="9797865_9797865_30" type="car_average"/>
	<vehicle id="9797865_9797865_3" type="car_average"/>
	<vehicle id="9797865_9797865_29" type="car_average"/>
	<vehicle id="9797865_9797865_28" type="car_average"/>
	<vehicle id="9797865_9797865_27" type="car_average"/>
	<vehicle id="9797865_9797865_26" type="car_average"/>
	<vehicle id="9797865_9797865_25" type="car_average"/>
	<vehicle id="9797865_9797865_24" type="car_average"/>
	<vehicle id="9797865_9797865_23" type="car_average"/>
	<vehicle id="9797865_9797865_22" type="car_average"/>
	<vehicle id="9797865_9797865_21" type="car_average"/>
	<vehicle id="9797865_9797865_20" type="car_average"/>
	<vehicle id="9797865_9797865_2" type="car_average"/>
	<vehicle id="9797865_9797865_19" type="car_average"/>
	<vehicle id="9797865_9797865_18" type="car_average"/>
	<vehicle id="9797865_9797865_17" type="car_average"/>
	<vehicle id="9797865_9797865_16" type="car_average"/>
	<vehicle id="9797865_9797865_15" type="car_average"/>
	<vehicle id="9797865_9797865_14" type="car_average"/>
	<vehicle id="9797865_9797865_13" type="car_average"/>
	<vehicle id="9797865_9797865_12" type="car_average"/>
	<vehicle id="9797865_9797865_11" type="car_average"/>
	<vehicle id="9797865_9797865_10" type="car_average"/>
	<vehicle id="9797865_9797865_1" type="car_average"/>
	<vehicle id="9797865_9797865_0" type="car_average"/>
	<vehicle id="9468605_9468605_9" type="car_average"/>
	<vehicle id="9468605_9468605_8" type="car_average"/>
	<vehicle id="9468605_9468605_7" type="car_average"/>
	<vehicle id="9468605_9468605_6" type="car_average"/>
	<vehicle id="9468605_9468605_5" type="car_average"/>
	<vehicle id="9468605_9468605_4" type="car_average"/>
	<vehicle id="9468605_9468605_33" type="car_average"/>
	<vehicle id="9468605_9468605_32" type="car_average"/>
	<vehicle id="9468605_9468605_31" type="car_average"/>
	<vehicle id="9468605_9468605_30" type="car_average"/>
	<vehicle id="9468605_9468605_3" type="car_average"/>
	<vehicle id="9468605_9468605_29" type="car_average"/>
	<vehicle id="9468605_9468605_28" type="car_average"/>
	<vehicle id="9468605_9468605_27" type="car_average"/>
	<vehicle id="9468605_9468605_26" type="car_average"/>
	<vehicle id="9468605_9468605_25" type="car_average"/>
	<vehicle id="9468605_9468605_24" type="car_average"/>
	<vehicle id="9468605_9468605_23" type="car_average"/>
	<vehicle id="9468605_9468605_22" type="car_average"/>
	<vehicle id="9468605_9468605_21" type="car_average"/>
	<vehicle id="9468605_9468605_20" type="car_average"/>
	<vehicle id="9468605_9468605_2" type="car_average"/>
	<vehicle id="9468605_9468605_19" type="car_average"/>
	<vehicle id="9468605_9468605_18" type="car_average"/>
	<vehicle id="9468605_9468605_17" type="car_average"/>
	<vehicle id="9468605_9468605_16" type="car_average"/>
	<vehicle id="9468605_9468605_15" type="car_average"/>
	<vehicle id="9468605_9468605_14" type="car_average"/>
	<vehicle id="9468605_9468605_13" type="car_average"/>
	<vehicle id="9468605_9468605_12" type="car_average"/>
	<vehicle id="9468605_9468605_11" type="car_average"/>
	<vehicle id="9468605_9468605_10" type="car_average"/>
	<vehicle id="9468605_9468605_1" type="car_average"/>
	<vehicle id="9468605_9468605_0" type="car_average"/>
	<vehicle id="8427050_8427050_99" type="car_average"/>
	<vehicle id="8427050_8427050_98" type="car_average"/>
	<vehicle id="8427050_8427050_97" type="car_average"/>
	<vehicle id="8427050_8427050_96" type="car_average"/>
	<vehicle id="8427050_8427050_95" type="car_average"/>
	<vehicle id="8427050_8427050_94" type="car_average"/>
	<vehicle id="8427050_8427050_93" type="car_average"/>
	<vehicle id="8427050_8427050_92" type="car_average"/>
	<vehicle id="8427050_8427050_91" type="car_average"/>
	<vehicle id="8427050_8427050_90" type="car_average"/>
	<vehicle id="8427050_8427050_9" type="car_average"/>
	<vehicle id="8427050_8427050_89" type="car_average"/>
	<vehicle id="8427050_8427050_88" type="car_average"/>
	<vehicle id="8427050_8427050_87" type="car_average"/>
	<vehicle id="8427050_8427050_86" type="car_average"/>
	<vehicle id="8427050_8427050_85" type="car_average"/>
	<vehicle id="8427050_8427050_84" type="car_average"/>
	<vehicle id="8427050_8427050_83" type="car_average"/>
	<vehicle id="8427050_8427050_82" type="car_average"/>
	<vehicle id="8427050_8427050_81" type="car_average"/>
	<vehicle id="8427050_8427050_80" type="car_average"/>
	<vehicle id="8427050_8427050_8" type="car_average"/>
	<vehicle id="8427050_8427050_79" type="car_average"/>
	<vehicle id="8427050_8427050_78" type="car_average"/>
	<vehicle id="8427050_8427050_77" type="car_average"/>
	<vehicle id="8427050_8427050_76" type="car_average"/>
	<vehicle id="8427050_8427050_75" type="car_average"/>
	<vehicle id="8427050_8427050_74" type="car_average"/>
	<vehicle id="8427050_8427050_73" type="car_average"/>
	<vehicle id="8427050_8427050_72" type="car_average"/>
	<vehicle id="8427050_8427050_71" type="car_average"/>
	<vehicle id="8427050_8427050_70" type="car_average"/>
	<vehicle id="8427050_8427050_7" type="car_average"/>
	<vehicle id="8427050_8427050_69" type="car_average"/>
	<vehicle id="8427050_8427050_68" type="car_average"/>
	<vehicle id="8427050_8427050_67" type="car_average"/>
	<vehicle id="8427050_8427050_66" type="car_average"/>
	<vehicle id="8427050_8427050_65" type="car_average"/>
	<vehicle id="8427050_8427050_64" type="car_average"/>
	<vehicle id="8427050_8427050_63" type="car_average"/>
	<vehicle id="8427050_8427050_62" type="car_average"/>
	<vehicle id="8427050_8427050_61" type="car_average"/>
	<vehicle id="8427050_8427050_60" type="car_average"/>
	<vehicle id="8427050_8427050_6" type="car_average"/>
	<vehicle id="8427050_8427050_59" type="car_average"/>
	<vehicle id="8427050_8427050_58" type="car_average"/>
	<vehicle id="8427050_8427050_57" type="car_average"/>
	<vehicle id="8427050_8427050_56" type="car_average"/>
	<vehicle id="8427050_8427050_55" type="car_average"/>
	<vehicle id="8427050_8427050_54" type="car_average"/>
	<vehicle id="8427050_8427050_53" type="car_average"/>
	<vehicle id="8427050_8427050_52" type="car_average"/>
	<vehicle id="8427050_8427050_51" type="car_average"/>
	<vehicle id="8427050_8427050_50" type="car_average"/>
	<vehicle id="8427050_8427050_5" type="car_average"/>
	<vehicle id="8427050_8427050_49" type="car_average"/>
	<vehicle id="8427050_8427050_48" type="car_average"/>
	<vehicle id="8427050_8427050_47" type="car_average"/>
	<vehicle id="8427050_8427050_46" type="car_average"/>
	<vehicle id="8427050_8427050_45" type="car_average"/>
	<vehicle id="8427050_8427050_44" type="car_average"/>
	<vehicle id="8427050_8427050_43" type="car_average"/>
	<vehicle id="8427050_8427050_42" type="car_average"/>
	<vehicle id="8427050_8427050_41" type="car_average"/>
	<vehicle id="8427050_8427050_40" type="car_average"/>
	<vehicle id="8427050_8427050_4" type="car_average"/>
	<vehicle id="8427050_8427050_39" type="car_average"/>
	<vehicle id="8427050_8427050_38" type="car_average"/>
	<vehicle id="8427050_8427050_37" type="car_average"/>
	<vehicle id="8427050_8427050_36" type="car_average"/>
	<vehicle id="8427050_8427050_35" type="car_average"/>
	<vehicle id="8427050_8427050_34" type="car_average"/>
	<vehicle id="8427050_8427050_33" type="car_average"/>
	<vehicle id="8427050_8427050_32" type="car_average"/>
	<vehicle id="8427050_8427050_31" type="car_average"/>
	<vehicle id="8427050_8427050_30" type="car_average"/>
	<vehicle id="8427050_8427050_3" type="car_average"/>
	<vehicle id="8427050_8427050_29" type="car_average"/>
	<vehicle id="8427050_8427050_28" type="car_average"/>
	<vehicle id="8427050_8427050_27" type="car_average"/>
	<vehicle id="8427050_8427050_26" type="car_average"/>
	<vehicle id="8427050_8427050_25" type="car_average"/>
	<vehicle id="8427050_8427050_24" type="car_average"/>
	<vehicle id="8427050_8427050_23" type="car_average"/>
	<vehicle id="8427050_8427050_22" type="car_average"/>
	<vehicle id="8427050_8427050_21" type="car_average"/>
	<vehicle id="8427050_8427050_20" type="car_average"/>
	<vehicle id="8427050_8427050_2" type="car_average"/>
	<vehicle id="8427050_8427050_19" type="car_average"/>
	<vehicle id="8427050_8427050_18" type="car_average"/>
	<vehicle id="8427050_8427050_17" type="car_average"/>
	<vehicle id="8427050_8427050_16" type="car_average"/>
	<vehicle id="8427050_8427050_15" type="car_average"/>
	<vehicle id="8427050_8427050_14" type="car_average"/>
	<vehicle id="8427050_8427050_13" type="car_average"/>
	<vehicle id="8427050_8427050_12" type="car_average"/>
	<vehicle id="8427050_8427050_110" type="car_average"/>
	<vehicle id="8427050_8427050_11" type="car_average"/>
	<vehicle id="8427050_8427050_109" type="car_average"/>
	<vehicle id="8427050_8427050_108" type="car_average"/>
	<vehicle id="8427050_8427050_107" type="car_average"/>
	<vehicle id="8427050_8427050_106" type="car_average"/>
	<vehicle id="8427050_8427050_105" type="car_average"/>
	<vehicle id="8427050_8427050_104" type="car_average"/>
	<vehicle id="8427050_8427050_103" type="car_average"/>
	<vehicle id="8427050_8427050_102" type="car_average"/>
	<vehicle id="8427050_8427050_101" type="car_average"/>
	<vehicle id="8427050_8427050_100" type="car_average"/>
	<vehicle id="8427050_8427050_10" type="car_average"/>
	<vehicle id="8427050_8427050_1" type="car_average"/>
	<vehicle id="8427050_8427050_0" type="car_average"/>
	<vehicle id="8393478_8393478_9" type="car_average"/>
	<vehicle id="8393478_8393478_8" type="car_average"/>
	<vehicle id="8393478_8393478_7" type="car_average"/>
	<vehicle id="8393478_8393478_66" type="car_average"/>
	<vehicle id="8393478_8393478_65" type="car_average"/>
	<vehicle id="8393478_8393478_64" type="car_average"/>
	<vehicle id="8393478_8393478_63" type="car_average"/>
	<vehicle id="8393478_8393478_62" type="car_average"/>
	<vehicle id="8393478_8393478_61" type="car_average"/>
	<vehicle id="8393478_8393478_60" type="car_average"/>
	<vehicle id="8393478_8393478_6" type="car_average"/>
	<vehicle id="8393478_8393478_59" type="car_average"/>
	<vehicle id="8393478_8393478_58" type="car_average"/>
	<vehicle id="8393478_8393478_57" type="car_average"/>
	<vehicle id="8393478_8393478_56" type="car_average"/>
	<vehicle id="8393478_8393478_55" type="car_average"/>
	<vehicle id="8393478_8393478_54" type="car_average"/>
	<vehicle id="8393478_8393478_53" type="car_average"/>
	<vehicle id="8393478_8393478_52" type="car_average"/>
	<vehicle id="8393478_8393478_51" type="car_average"/>
	<vehicle id="8393478_8393478_50" type="car_average"/>
	<vehicle id="8393478_8393478_5" type="car_average"/>
	<vehicle id="8393478_8393478_49" type="car_average"/>
	<vehicle id="8393478_8393478_48" type="car_average"/>
	<vehicle id="8393478_8393478_47" type="car_average"/>
	<vehicle id="8393478_8393478_46" type="car_average"/>
	<vehicle id="8393478_8393478_45" type="car_average"/>
	<vehicle id="8393478_8393478_44" type="car_average"/>
	<vehicle id="8393478_8393478_43" type="car_average"/>
	<vehicle id="8393478_8393478_42" type="car_average"/>
	<vehicle id="8393478_8393478_41" type="car_average"/>
	<vehicle id="8393478_8393478_40" type="car_average"/>
	<vehicle id="8393478_8393478_4" type="car_average"/>
	<vehicle id="8393478_8393478_39" type="car_average"/>
	<vehicle id="8393478_8393478_38" type="car_average"/>
	<vehicle id="8393478_8393478_37" type="car_average"/>
	<vehicle id="8393478_8393478_36" type="car_average"/>
	<vehicle id="8393478_8393478_35" type="car_average"/>
	<vehicle id="8393478_8393478_34" type="car_average"/>
	<vehicle id="8393478_8393478_33" type="car_average"/>
	<vehicle id="8393478_8393478_32" type="car_average"/>
	<vehicle id="8393478_8393478_31" type="car_average"/>
	<vehicle id="8393478_8393478_30" type="car_average"/>
	<vehicle id="8393478_8393478_3" type="car_average"/>
	<vehicle id="8393478_8393478_29" type="car_average"/>
	<vehicle id="8393478_8393478_28" type="car_average"/>
	<vehicle id="8393478_8393478_27" type="car_average"/>
	<vehicle id="8393478_8393478_26" type="car_average"/>
	<vehicle id="8393478_8393478_25" type="car_average"/>
	<vehicle id="8393478_8393478_24" type="car_average"/>
	<vehicle id="8393478_8393478_23" type="car_average"/>
	<vehicle id="8393478_8393478_22" type="car_average"/>
	<vehicle id="8393478_8393478_21" type="car_average"/>
	<vehicle id="8393478_8393478_20" type="car_average"/>
	<vehicle id="8393478_8393478_2" type="car_average"/>
	<vehicle id="8393478_8393478_19" type="car_average"/>
	<vehicle id="8393478_8393478_18" type="car_average"/>
	<vehicle id="8393478_8393478_17" type="car_average"/>
	<vehicle id="8393478_8393478_16" type="car_average"/>
	<vehicle id="8393478_8393478_15" type="car_average"/>
	<vehicle id="8393478_8393478_14" type="car_average"/>
	<vehicle id="8393478_8393478_13" type="car_average"/>
	<vehicle id="8393478_8393478_12" type="car_average"/>
	<vehicle id="8393478_8393478_11" type="car_average"/>
	<vehicle id="8393478_8393478_10" type="car_average"/>
	<vehicle id="8393478_8393478_1" type="car_average"/>
	<vehicle id="8393478_8393478_0" type="car_average"/>
	<vehicle id="8393477_8393477_9" type="car_average"/>
	<vehicle id="8393477_8393477_8" type="car_average"/>
	<vehicle id="8393477_8393477_7" type="car_average"/>
	<vehicle id="8393477_8393477_66" type="car_average"/>
	<vehicle id="8393477_8393477_65" type="car_average"/>
	<vehicle id="8393477_8393477_64" type="car_average"/>
	<vehicle id="8393477_8393477_63" type="car_average"/>
	<vehicle id="8393477_8393477_62" type="car_average"/>
	<vehicle id="8393477_8393477_61" type="car_average"/>
	<vehicle id="8393477_8393477_60" type="car_average"/>
	<vehicle id="8393477_8393477_6" type="car_average"/>
	<vehicle id="8393477_8393477_59" type="car_average"/>
	<vehicle id="8393477_8393477_58" type="car_average"/>
	<vehicle id="8393477_8393477_57" type="car_average"/>
	<vehicle id="8393477_8393477_56" type="car_average"/>
	<vehicle id="8393477_8393477_55" type="car_average"/>
	<vehicle id="8393477_8393477_54" type="car_average"/>
	<vehicle id="8393477_8393477_53" type="car_average"/>
	<vehicle id="8393477_8393477_52" type="car_average"/>
	<vehicle id="8393477_8393477_51" type="car_average"/>
	<vehicle id="8393477_8393477_50" type="car_average"/>
	<vehicle id="8393477_8393477_5" type="car_average"/>
	<vehicle id="8393477_8393477_49" type="car_average"/>
	<vehicle id="8393477_8393477_48" type="car_average"/>
	<vehicle id="8393477_8393477_47" type="car_average"/>
	<vehicle id="8393477_8393477_46" type="car_average"/>
	<vehicle id="8393477_8393477_45" type="car_average"/>
	<vehicle id="8393477_8393477_44" type="car_average"/>
	<vehicle id="8393477_8393477_43" type="car_average"/>
	<vehicle id="8393477_8393477_42" type="car_average"/>
	<vehicle id="8393477_8393477_41" type="car_average"/>
	<vehicle id="8393477_8393477_40" type="car_average"/>
	<vehicle id="8393477_8393477_4" type="car_average"/>
	<vehicle id="8393477_8393477_39" type="car_average"/>
	<vehicle id="8393477_8393477_38" type="car_average"/>
	<vehicle id="8393477_8393477_37" type="car_average"/>
	<vehicle id="8393477_8393477_36" type="car_average"/>
	<vehicle id="8393477_8393477_35" type="car_average"/>
	<vehicle id="8393477_8393477_34" type="car_average"/>
	<vehicle id="8393477_8393477_33" type="car_average"/>
	<vehicle id="8393477_8393477_32" type="car_average"/>
	<vehicle id="8393477_8393477_31" type="car_average"/>
	<vehicle id="8393477_8393477_30" type="car_average"/>
	<vehicle id="8393477_8393477_3" type="car_average"/>
	<vehicle id="8393477_8393477_29" type="car_average"/>
	<vehicle id="8393477_8393477_28" type="car_average"/>
	<vehicle id="8393477_8393477_27" type="car_average"/>
	<vehicle id="8393477_8393477_26" type="car_average"/>
	<vehicle id="8393477_8393477_25" type="car_average"/>
	<vehicle id="8393477_8393477_24" type="car_average"/>
	<vehicle id="8393477_8393477_23" type="car_average"/>
	<vehicle id="8393477_8393477_22" type="car_average"/>
	<vehicle id="8393477_8393477_21" type="car_average"/>
	<vehicle id="8393477_8393477_20" type="car_average"/>
	<vehicle id="8393477_8393477_2" type="car_average"/>
	<vehicle id="8393477_8393477_19" type="car_average"/>
	<vehicle id="8393477_8393477_18" type="car_average"/>
	<vehicle id="8393477_8393477_17" type="car_average"/>
	<vehicle id="8393477_8393477_16" type="car_average"/>
	<vehicle id="8393477_8393477_15" type="car_average"/>
	<vehicle id="8393477_8393477_14" type="car_average"/>
	<vehicle id="8393477_8393477_13" type="car_average"/>
	<vehicle id="8393477_8393477_12" type="car_average"/>
	<vehicle id="8393477_8393477_11" type="car_average"/>
	<vehicle id="8393477_8393477_10" type="car_average"/>
	<vehicle id="8393477_8393477_1" type="car_average"/>
	<vehicle id="8393477_8393477_0" type="car_average"/>
	<vehicle id="7650798_7650798_9" type="car_average"/>
	<vehicle id="7650798_7650798_8" type="car_average"/>
	<vehicle id="7650798_7650798_7" type="car_average"/>
	<vehicle id="7650798_7650798_66" type="car_average"/>
	<vehicle id="7650798_7650798_65" type="car_average"/>
	<vehicle id="7650798_7650798_64" type="car_average"/>
	<vehicle id="7650798_7650798_63" type="car_average"/>
	<vehicle id="7650798_7650798_62" type="car_average"/>
	<vehicle id="7650798_7650798_61" type="car_average"/>
	<vehicle id="7650798_7650798_60" type="car_average"/>
	<vehicle id="7650798_7650798_6" type="car_average"/>
	<vehicle id="7650798_7650798_59" type="car_average"/>
	<vehicle id="7650798_7650798_58" type="car_average"/>
	<vehicle id="7650798_7650798_57" type="car_average"/>
	<vehicle id="7650798_7650798_56" type="car_average"/>
	<vehicle id="7650798_7650798_55" type="car_average"/>
	<vehicle id="7650798_7650798_54" type="car_average"/>
	<vehicle id="7650798_7650798_53" type="car_average"/>
	<vehicle id="7650798_7650798_52" type="car_average"/>
	<vehicle id="7650798_7650798_51" type="car_average"/>
	<vehicle id="7650798_7650798_50" type="car_average"/>
	<vehicle id="7650798_7650798_5" type="car_average"/>
	<vehicle id="7650798_7650798_49" type="car_average"/>
	<vehicle id="7650798_7650798_48" type="car_average"/>
	<vehicle id="7650798_7650798_47" type="car_average"/>
	<vehicle id="7650798_7650798_46" type="car_average"/>
	<vehicle id="7650798_7650798_45" type="car_average"/>
	<vehicle id="7650798_7650798_44" type="car_average"/>
	<vehicle id="7650798_7650798_43" type="car_average"/>
	<vehicle id="7650798_7650798_42" type="car_average"/>
	<vehicle id="7650798_7650798_41" type="car_average"/>
	<vehicle id="7650798_7650798_40" type="car_average"/>
	<vehicle id="7650798_7650798_4" type="car_average"/>
	<vehicle id="7650798_7650798_39" type="car_average"/>
	<vehicle id="7650798_7650798_38" type="car_average"/>
	<vehicle id="7650798_7650798_37" type="car_average"/>
	<vehicle id="7650798_7650798_36" type="car_average"/>
	<vehicle id="7650798_7650798_35" type="car_average"/>
	<vehicle id="7650798_7650798_34" type="car_average"/>
	<vehicle id="7650798_7650798_33" type="car_average"/>
	<vehicle id="7650798_7650798_32" type="car_average"/>
	<vehicle id="7650798_7650798_31" type="car_average"/>
	<vehicle id="7650798_7650798_30" type="car_average"/>
	<vehicle id="7650798_7650798_3" type="car_average"/>
	<vehicle id="7650798_7650798_29" type="car_average"/>
	<vehicle id="7650798_7650798_28" type="car_average"/>
	<vehicle id="7650798_7650798_27" type="car_average"/>
	<vehicle id="7650798_7650798_26" type="car_average"/>
	<vehicle id="7650798_7650798_25" type="car_average"/>
	<vehicle id="7650798_7650798_24" type="car_average"/>
	<vehicle id="7650798_7650798_23" type="car_average"/>
	<vehicle id="7650798_7650798_22" type="car_average"/>
	<vehicle id="7650798_7650798_21" type="car_average"/>
	<vehicle id="7650798_7650798_20" type="car_average"/>
	<vehicle id="7650798_7650798_2" type="car_average"/>
	<vehicle id="7650798_7650798_19" type="car_average"/>
	<vehicle id="7650798_7650798_18" type="car_average"/>
	<vehicle id="7650798_7650798_17" type="car_average"/>
	<vehicle id="7650798_7650798_16" type="car_average"/>
	<vehicle id="7650798_7650798_15" type="car_average"/>
	<vehicle id="7650798_7650798_14" type="car_average"/>
	<vehicle id="7650798_7650798_13" type="car_average"/>
	<vehicle id="7650798_7650798_12" type="car_average"/>
	<vehicle id="7650798_7650798_11" type="car_average"/>
	<vehicle id="7650798_7650798_10" type="car_average"/>
	<vehicle id="7650798_7650798_1" type="car_average"/>
	<vehicle id="7650798_7650798_0" type="car_average"/>
	<vehicle id="7650797_7650797_9" type="car_average"/>
	<vehicle id="7650797_7650797_8" type="car_average"/>
	<vehicle id="7650797_7650797_7" type="car_average"/>
	<vehicle id="7650797_7650797_66" type="car_average"/>
	<vehicle id="7650797_7650797_65" type="car_average"/>
	<vehicle id="7650797_7650797_64" type="car_average"/>
	<vehicle id="7650797_7650797_63" type="car_average"/>
	<vehicle id="7650797_7650797_62" type="car_average"/>
	<vehicle id="7650797_7650797_61" type="car_average"/>
	<vehicle id="7650797_7650797_60" type="car_average"/>
	<vehicle id="7650797_7650797_6" type="car_average"/>
	<vehicle id="7650797_7650797_59" type="car_average"/>
	<vehicle id="7650797_7650797_58" type="car_average"/>
	<vehicle id="7650797_7650797_57" type="car_average"/>
	<vehicle id="7650797_7650797_56" type="car_average"/>
	<vehicle id="7650797_7650797_55" type="car_average"/>
	<vehicle id="7650797_7650797_54" type="car_average"/>
	<vehicle id="7650797_7650797_53" type="car_average"/>
	<vehicle id="7650797_7650797_52" type="car_average"/>
	<vehicle id="7650797_7650797_51" type="car_average"/>
	<vehicle id="7650797_7650797_50" type="car_average"/>
	<vehicle id="7650797_7650797_5" type="car_average"/>
	<vehicle id="7650797_7650797_49" type="car_average"/>
	<vehicle id="7650797_7650797_48" type="car_average"/>
	<vehicle id="7650797_7650797_47" type="car_average"/>
	<vehicle id="7650797_7650797_46" type="car_average"/>
	<vehicle id="7650797_7650797_45" type="car_average"/>
	<vehicle id="7650797_7650797_44" type="car_average"/>
	<vehicle id="7650797_7650797_43" type="car_average"/>
	<vehicle id="7650797_7650797_42" type="car_average"/>
	<vehicle id="7650797_7650797_41" type="car_average"/>
	<vehicle id="7650797_7650797_40" type="car_average"/>
	<vehicle id="7650797_7650797_4" type="car_average"/>
	<vehicle id="7650797_7650797_39" type="car_average"/>
	<vehicle id="7650797_7650797_38" type="car_average"/>
	<vehicle id="7650797_7650797_37" type="car_average"/>
	<vehicle id="7650797_7650797_36" type="car_average"/>
	<vehicle id="7650797_7650797_35" type="car_average"/>
	<vehicle id="7650797_7650797_34" type="car_average"/>
	<vehicle id="7650797_7650797_33" type="car_average"/>
	<vehicle id="7650797_7650797_32" type="car_average"/>
	<vehicle id="7650797_7650797_31" type="car_average"/>
	<vehicle id="7650797_7650797_30" type="car_average"/>
	<vehicle id="7650797_7650797_3" type="car_average"/>
	<vehicle id="7650797_7650797_29" type="car_average"/>
	<vehicle id="7650797_7650797_28" type="car_average"/>
	<vehicle id="7650797_7650797_27" type="car_average"/>
	<vehicle id="7650797_7650797_26" type="car_average"/>
	<vehicle id="7650797_7650797_25" type="car_average"/>
	<vehicle id="7650797_7650797_24" type="car_average"/>
	<vehicle id="7650797_7650797_23" type="car_average"/>
	<vehicle id="7650797_7650797_22" type="car_average"/>
	<vehicle id="7650797_7650797_21" type="car_average"/>