<?xml version="1.0" encoding="UTF-8"?>

<vehicleDefinitions xmlns="http://www.matsim.org/files/dtd"
 xmlns:xsi="http://www.w3.org/2001/XMLSchema-instance"
 xsi:schemaLocation="http://www.matsim.org/files/dtd http://www.matsim.org/files/dtd/vehicleDefinitions_v2.0.xsd">
	<vehicleType id="car_average">
		<length meter="7.5"/>
		<width meter="1.0"/>
		<engineInformation>
			<attributes>
				<attribute name="HbefaVehicleCategory" class="java.lang.String">PASSENGER_CAR</attribute>
				<attribute name="HbefaTechnology" class="java.lang.String">average</attribute>
				<attribute name="HbefaSizeClass" class="java.lang.String">average</attribute>
				<attribute name="HbefaEmissionsConcept" class="java.lang.String">average</attribute>
			</attributes>
		</engineInformation>
	</vehicleType>

	<vehicleType id="car_petrol">
		<length meter="7.5"/>
		<width meter="1.0"/>
		<engineInformation>
			<attributes>
				<attribute name="HbefaVehicleCategory" class="java.lang.String">PASSENGER_CAR</attribute>
				<attribute name="HbefaTechnology" class="java.lang.String">petrol (4S)</attribute>
				<attribute name="HbefaSizeClass" class="java.lang.String">&gt;=2L</attribute>
				<attribute name="HbefaEmissionsConcept" class="java.lang.String">PC-P-Euro-1</attribute>
			</attributes>
		</engineInformation>
	</vehicleType>

	<vehicleType id="car_diesel">
		<length meter="7.5"/>
		<width meter="1.0"/>
		<engineInformation>
			<attributes>
				<attribute name="HbefaVehicleCategory" class="java.lang.String">PASSENGER_CAR</attribute>
				<attribute name="HbefaTechnology" class="java.lang.String">diesel</attribute>
				<attribute name="HbefaSizeClass" class="java.lang.String">&lt;1,4L</attribute>
				<attribute name="HbefaEmissionsConcept" class="java.lang.String">PC-D-Euro-3</attribute>
			</attributes>
		</engineInformation>
	</vehicleType>

	<vehicleType id="truck">
		<description>
			BEGIN_EMISSIONSHEAVY_GOODS_VEHICLE;average;average;averageEND_EMISSIONS
		</description>
		<length meter="7.5"/>
		<width meter="1.0"/>
		<engineInformation>
			<attributes>
				<attribute name="HbefaVehicleCategory" class="java.lang.String">HEAVY_GOODS_VEHICLE</attribute>
				<attribute name="HbefaTechnology" class="java.lang.String">average</attribute>
				<attribute name="HbefaSizeClass" class="java.lang.String">average</attribute>
				<attribute name="HbefaEmissionsConcept" class="java.lang.String">average</attribute>
			</attributes>
		</engineInformation>
	</vehicleType>


	<vehicle id="999361361_999361361_9" type="car_average"/>
	<vehicle id="999361361_999361361_8" type="car_average"/>
	<vehicle id="999361361_999361361_7" type="car_average"/>
	<vehicle id="999361361_999361361_6" type="car_average"/>
	<vehicle id="999361361_999361361_5" type="car_average"/>
	<vehicle id="999361361_999361361_4" type="car_average"/>
	<vehicle id="999361361_999361361_3" type="car_average"/>
	<vehicle id="999361361_999361361_2" type="car_average"/>
	<vehicle id="999361361_999361361_1" type="car_average"/>
	<vehicle id="999361361_999361361_0" type="car_average"/>
	<vehicle id="999355112_999355112_9" type="car_average"/>
	<vehicle id="999355112_999355112_8" type="car_average"/>
	<vehicle id="999355112_999355112_7" type="car_average"/>
	<vehicle id="999355112_999355112_6" type="car_average"/>
	<vehicle id="999355112_999355112_5" type="car_average"/>
	<vehicle id="999355112_999355112_4" type="car_average"/>
	<vehicle id="999355112_999355112_3" type="car_average"/>
	<vehicle id="999355112_999355112_2" type="car_average"/>
	<vehicle id="999355112_999355112_1" type="car_average"/>
	<vehicle id="999355112_999355112_0" type="car_average"/>
	<vehicle id="996823021_996823021_9" type="car_average"/>
	<vehicle id="996823021_996823021_8" type="car_average"/>
	<vehicle id="996823021_996823021_7" type="car_average"/>
	<vehicle id="996823021_996823021_6" type="car_average"/>
	<vehicle id="996823021_996823021_5" type="car_average"/>
	<vehicle id="996823021_996823021_4" type="car_average"/>
	<vehicle id="996823021_996823021_3" type="car_average"/>
	<vehicle id="996823021_996823021_2" type="car_average"/>
	<vehicle id="996823021_996823021_1" type="car_average"/>
	<vehicle id="996823021_996823021_0" type="car_average"/>
	<vehicle id="996821761_996821761_9" type="car_average"/>
	<vehicle id="996821761_996821761_8" type="car_average"/>
	<vehicle id="996821761_996821761_7" type="car_average"/>
	<vehicle id="996821761_996821761_6" type="car_average"/>
	<vehicle id="996821761_996821761_5" type="car_average"/>
	<vehicle id="996821761_996821761_4" type="car_average"/>
	<vehicle id="996821761_996821761_3" type="car_average"/>
	<vehicle id="996821761_996821761_2" type="car_average"/>
	<vehicle id="996821761_996821761_1" type="car_average"/>
	<vehicle id="996821761_996821761_0" type="car_average"/>
	<vehicle id="996185271_996185271_9" type="car_average"/>
	<vehicle id="996185271_996185271_8" type="car_average"/>
	<vehicle id="996185271_996185271_7" type="car_average"/>
	<vehicle id="996185271_996185271_6" type="car_average"/>
	<vehicle id="996185271_996185271_5" type="car_average"/>
	<vehicle id="996185271_996185271_4" type="car_average"/>
	<vehicle id="996185271_996185271_3" type="car_average"/>
	<vehicle id="996185271_996185271_2" type="car_average"/>
	<vehicle id="996185271_996185271_1" type="car_average"/>
	<vehicle id="996185271_996185271_0" type="car_average"/>
	<vehicle id="995188841_995188841_9" type="car_average"/>
	<vehicle id="995188841_995188841_8" type="car_average"/>
	<vehicle id="995188841_995188841_7" type="car_average"/>
	<vehicle id="995188841_995188841_6" type="car_average"/>
	<vehicle id="995188841_995188841_5" type="car_average"/>
	<vehicle id="995188841_995188841_4" type="car_average"/>
	<vehicle id="995188841_995188841_3" type="car_average"/>
	<vehicle id="995188841_995188841_2" type="car_average"/>
	<vehicle id="995188841_995188841_1" type="car_average"/>
	<vehicle id="995188841_995188841_0" type="car_average"/>
	<vehicle id="995186446_995186446_9" type="car_average"/>
	<vehicle id="995186446_995186446_8" type="car_average"/>
	<vehicle id="995186446_995186446_7" type="car_average"/>
	<vehicle id="995186446_995186446_6" type="car_average"/>
	<vehicle id="995186446_995186446_5" type="car_average"/>
	<vehicle id="995186446_995186446_4" type="car_average"/>
	<vehicle id="995186446_995186446_3" type="car_average"/>
	<vehicle id="995186446_995186446_2" type="car_average"/>
	<vehicle id="995186446_995186446_1" type="car_average"/>
	<vehicle id="995186446_995186446_0" type="car_average"/>
	<vehicle id="995180690_995180690_9" type="car_average"/>
	<vehicle id="995180690_995180690_8" type="car_average"/>
	<vehicle id="995180690_995180690_7" type="car_average"/>
	<vehicle id="995180690_995180690_6" type="car_average"/>
	<vehicle id="995180690_995180690_5" type="car_average"/>
	<vehicle id="995180690_995180690_4" type="car_average"/>
	<vehicle id="995180690_995180690_3" type="car_average"/>
	<vehicle id="995180690_995180690_2" type="car_average"/>
	<vehicle id="995180690_995180690_1" type="car_average"/>
	<vehicle id="995180690_995180690_0" type="car_average"/>
	<vehicle id="995175997_995175997_9" type="car_average"/>
	<vehicle id="995175997_995175997_8" type="car_average"/>
	<vehicle id="995175997_995175997_7" type="car_average"/>
	<vehicle id="995175997_995175997_6" type="car_average"/>
	<vehicle id="995175997_995175997_5" type="car_average"/>
	<vehicle id="995175997_995175997_4" type="car_average"/>
	<vehicle id="995175997_995175997_3" type="car_average"/>
	<vehicle id="995175997_995175997_2" type="car_average"/>
	<vehicle id="995175997_995175997_1" type="car_average"/>
	<vehicle id="995175997_995175997_0" type="car_average"/>
	<vehicle id="995169449_995169449_9" type="car_average"/>
	<vehicle id="995169449_995169449_8" type="car_average"/>
	<vehicle id="995169449_995169449_7" type="car_average"/>
	<vehicle id="995169449_995169449_6" type="car_average"/>
	<vehicle id="995169449_995169449_5" type="car_average"/>
	<vehicle id="995169449_995169449_4" type="car_average"/>
	<vehicle id="995169449_995169449_3" type="car_average"/>
	<vehicle id="995169449_995169449_2" type="car_average"/>
	<vehicle id="995169449_995169449_1" type="car_average"/>
	<vehicle id="995169449_995169449_0" type="car_average"/>
	<vehicle id="995168560_995168560_9" type="car_average"/>
	<vehicle id="995168560_995168560_8" type="car_average"/>
	<vehicle id="995168560_995168560_7" type="car_average"/>
	<vehicle id="995168560_995168560_6" type="car_average"/>
	<vehicle id="995168560_995168560_5" type="car_average"/>
	<vehicle id="995168560_995168560_4" type="car_average"/>
	<vehicle id="995168560_995168560_3" type="car_average"/>
	<vehicle id="995168560_995168560_2" type="car_average"/>
	<vehicle id="995168560_995168560_1" type="car_average"/>
	<vehicle id="995168560_995168560_0" type="car_average"/>
	<vehicle id="993528061_993528061_9" type="car_average"/>
	<vehicle id="993528061_993528061_8" type="car_average"/>
	<vehicle id="993528061_993528061_7" type="car_average"/>
	<vehicle id="993528061_993528061_6" type="car_average"/>
	<vehicle id="993528061_993528061_5" type="car_average"/>
	<vehicle id="993528061_993528061_4" type="car_average"/>
	<vehicle id="993528061_993528061_3" type="car_average"/>
	<vehicle id="993528061_993528061_2" type="car_average"/>
	<vehicle id="993528061_993528061_1" type="car_average"/>
	<vehicle id="993528061_993528061_0" type="car_average"/>
	<vehicle id="991653242_991653242_9" type="car_average"/>
	<vehicle id="991653242_991653242_8" type="car_average"/>
	<vehicle id="991653242_991653242_7" type="car_average"/>
	<vehicle id="991653242_991653242_6" type="car_average"/>
	<vehicle id="991653242_991653242_5" type="car_average"/>
	<vehicle id="991653242_991653242_4" type="car_average"/>
	<vehicle id="991653242_991653242_3" type="car_average"/>
	<vehicle id="991653242_991653242_2" type="car_average"/>
	<vehicle id="991653242_991653242_1" type="car_average"/>
	<vehicle id="991653242_991653242_0" type="car_average"/>
	<vehicle id="991643654_991643654_9" type="car_average"/>
	<vehicle id="991643654_991643654_8" type="car_average"/>
	<vehicle id="991643654_991643654_7" type="car_average"/>
	<vehicle id="991643654_991643654_6" type="car_average"/>
	<vehicle id="991643654_991643654_5" type="car_average"/>
	<vehicle id="991643654_991643654_4" type="car_average"/>
	<vehicle id="991643654_991643654_3" type="car_average"/>
	<vehicle id="991643654_991643654_2" type="car_average"/>
	<vehicle id="991643654_991643654_1" type="car_average"/>
	<vehicle id="991643654_991643654_0" type="car_average"/>
	<vehicle id="976324703_976324703_9" type="car_average"/>
	<vehicle id="976324703_976324703_8" type="car_average"/>
	<vehicle id="976324703_976324703_7" type="car_average"/>
	<vehicle id="976324703_976324703_6" type="car_average"/>
	<vehicle id="976324703_976324703_5" type="car_average"/>
	<vehicle id="976324703_976324703_4" type="car_average"/>
	<vehicle id="976324703_976324703_3" type="car_average"/>
	<vehicle id="976324703_976324703_2" type="car_average"/>
	<vehicle id="976324703_976324703_1" type="car_average"/>
	<vehicle id="976324703_976324703_0" type="car_average"/>
	<vehicle id="976029532_976029532_9" type="car_average"/>
	<vehicle id="976029532_976029532_8" type="car_average"/>
	<vehicle id="976029532_976029532_7" type="car_average"/>
	<vehicle id="976029532_976029532_6" type="car_average"/>
	<vehicle id="976029532_976029532_5" type="car_average"/>
	<vehicle id="976029532_976029532_4" type="car_average"/>
	<vehicle id="976029532_976029532_3" type="car_average"/>
	<vehicle id="976029532_976029532_2" type="car_average"/>
	<vehicle id="976029532_976029532_1" type="car_average"/>
	<vehicle id="976029532_976029532_0" type="car_average"/>
	<vehicle id="974080244_974080244_9" type="car_average"/>
	<vehicle id="974080244_974080244_8" type="car_average"/>
	<vehicle id="974080244_974080244_7" type="car_average"/>
	<vehicle id="974080244_974080244_6" type="car_average"/>
	<vehicle id="974080244_974080244_5" type="car_average"/>
	<vehicle id="974080244_974080244_4" type="car_average"/>
	<vehicle id="974080244_974080244_3" type="car_average"/>
	<vehicle id="974080244_974080244_2" type="car_average"/>
	<vehicle id="974080244_974080244_1" type="car_average"/>
	<vehicle id="974080244_974080244_0" type="car_average"/>
	<vehicle id="971864708_971864708_9" type="car_average"/>
	<vehicle id="971864708_971864708_8" type="car_average"/>
	<vehicle id="971864708_971864708_7" type="car_average"/>
	<vehicle id="971864708_971864708_6" type="car_average"/>
	<vehicle id="971864708_971864708_5" type="car_average"/>
	<vehicle id="971864708_971864708_4" type="car_average"/>
	<vehicle id="971864708_971864708_3" type="car_average"/>
	<vehicle id="971864708_971864708_2" type="car_average"/>
	<vehicle id="971864708_971864708_1" type="car_average"/>
	<vehicle id="971864708_971864708_0" type="car_average"/>
	<vehicle id="970514438_970514438_9" type="car_average"/>
	<vehicle id="970514438_970514438_8" type="car_average"/>
	<vehicle id="970514438_970514438_7" type="car_average"/>
	<vehicle id="970514438_970514438_6" type="car_average"/>
	<vehicle id="970514438_970514438_5" type="car_average"/>
	<vehicle id="970514438_970514438_4" type="car_average"/>
	<vehicle id="970514438_970514438_3" type="car_average"/>
	<vehicle id="970514438_970514438_2" type="car_average"/>
	<vehicle id="970514438_970514438_1" type="car_average"/>
	<vehicle id="970514438_970514438_0" type="car_average"/>
	<vehicle id="961616525_961616525_9" type="car_average"/>
	<vehicle id="961616525_961616525_8" type="car_average"/>
	<vehicle id="961616525_961616525_7" type="car_average"/>
	<vehicle id="961616525_961616525_6" type="car_average"/>
	<vehicle id="961616525_961616525_5" type="car_average"/>
	<vehicle id="961616525_961616525_4" type="car_average"/>
	<vehicle id="961616525_961616525_3" type="car_average"/>
	<vehicle id="961616525_961616525_2" type="car_average"/>
	<vehicle id="961616525_961616525_1" type="car_average"/>
	<vehicle id="961616525_961616525_0" type="car_average"/>
	<vehicle id="961345447_961345447_9" type="car_average"/>
	<vehicle id="961345447_961345447_8" type="car_average"/>
	<vehicle id="961345447_961345447_7" type="car_average"/>
	<vehicle id="961345447_961345447_6" type="car_average"/>
	<vehicle id="961345447_961345447_5" type="car_average"/>
	<vehicle id="961345447_961345447_4" type="car_average"/>
	<vehicle id="961345447_961345447_3" type="car_average"/>
	<vehicle id="961345447_961345447_2" type="car_average"/>
	<vehicle id="961345447_961345447_1" type="car_average"/>
	<vehicle id="961345447_961345447_0" type="car_average"/>
	<vehicle id="961031463_961031463_9" type="car_average"/>
	<vehicle id="961031463_961031463_8" type="car_average"/>
	<vehicle id="961031463_961031463_7" type="car_average"/>
	<vehicle id="961031463_961031463_6" type="car_average"/>
	<vehicle id="961031463_961031463_5" type="car_average"/>
	<vehicle id="961031463_961031463_4" type="car_average"/>
	<vehicle id="961031463_961031463_3" type="car_average"/>
	<vehicle id="961031463_961031463_2" type="car_average"/>
	<vehicle id="961031463_961031463_1" type="car_average"/>
	<vehicle id="961031463_961031463_0" type="car_average"/>
	<vehicle id="961031461_961031461_9" type="car_average"/>
	<vehicle id="961031461_961031461_8" type="car_average"/>
	<vehicle id="961031461_961031461_7" type="car_average"/>
	<vehicle id="961031461_961031461_6" type="car_average"/>
	<vehicle id="961031461_961031461_5" type="car_average"/>
	<vehicle id="961031461_961031461_4" type="car_average"/>
	<vehicle id="961031461_961031461_3" type="car_average"/>
	<vehicle id="961031461_961031461_2" type="car_average"/>
	<vehicle id="961031461_961031461_1" type="car_average"/>
	<vehicle id="961031461_961031461_0" type="car_average"/>
	<vehicle id="951342466_951342466_9" type="car_average"/>
	<vehicle id="951342466_951342466_8" type="car_average"/>
	<vehicle id="951342466_951342466_7" type="car_average"/>
	<vehicle id="951342466_951342466_6" type="car_average"/>
	<vehicle id="951342466_951342466_5" type="car_average"/>
	<vehicle id="951342466_951342466_4" type="car_average"/>
	<vehicle id="951342466_951342466_3" type="car_average"/>
	<vehicle id="951342466_951342466_2" type="car_average"/>
	<vehicle id="951342466_951342466_1" type="car_average"/>
	<vehicle id="951342466_951342466_0" type="car_average"/>
	<vehicle id="941591564_941591564_9" type="car_average"/>
	<vehicle id="941591564_941591564_8" type="car_average"/>
	<vehicle id="941591564_941591564_7" type="car_average"/>
	<vehicle id="941591564_941591564_6" type="car_average"/>
	<vehicle id="941591564_941591564_5" type="car_average"/>
	<vehicle id="941591564_941591564_4" type="car_average"/>
	<vehicle id="941591564_941591564_3" type="car_average"/>
	<vehicle id="941591564_941591564_2" type="car_average"/>
	<vehicle id="941591564_941591564_1" type="car_average"/>
	<vehicle id="941591564_941591564_0" type="car_average"/>
	<vehicle id="933079497_933079497_9" type="car_average"/>
	<vehicle id="933079497_933079497_8" type="car_average"/>
	<vehicle id="933079497_933079497_7" type="car_average"/>
	<vehicle id="933079497_933079497_6" type="car_average"/>
	<vehicle id="933079497_933079497_5" type="car_average"/>
	<vehicle id="933079497_933079497_4" type="car_average"/>
	<vehicle id="933079497_933079497_3" type="car_average"/>
	<vehicle id="933079497_933079497_2" type="car_average"/>
	<vehicle id="933079497_933079497_1" type="car_average"/>
	<vehicle id="933079497_933079497_0" type="car_average"/>
	<vehicle id="922838076_922838076_9" type="car_average"/>
	<vehicle id="922838076_922838076_8" type="car_average"/>
	<vehicle id="922838076_922838076_7" type="car_average"/>
	<vehicle id="922838076_922838076_6" type="car_average"/>
	<vehicle id="922838076_922838076_5" type="car_average"/>
	<vehicle id="922838076_922838076_4" type="car_average"/>
	<vehicle id="922838076_922838076_3" type="car_average"/>
	<vehicle id="922838076_922838076_2" type="car_average"/>
	<vehicle id="922838076_922838076_1" type="car_average"/>
	<vehicle id="922838076_922838076_0" type="car_average"/>
	<vehicle id="919652945_919652945_9" type="car_average"/>
	<vehicle id="919652945_919652945_8" type="car_average"/>
	<vehicle id="919652945_919652945_7" type="car_average"/>
	<vehicle id="919652945_919652945_6" type="car_average"/>
	<vehicle id="919652945_919652945_5" type="car_average"/>
	<vehicle id="919652945_919652945_4" type="car_average"/>
	<vehicle id="919652945_919652945_3" type="car_average"/>
	<vehicle id="919652945_919652945_2" type="car_average"/>
	<vehicle id="919652945_919652945_1" type="car_average"/>
	<vehicle id="919652945_919652945_0" type="car_average"/>
	<vehicle id="909715614_909715614_9" type="car_average"/>
	<vehicle id="909715614_909715614_8" type="car_average"/>
	<vehicle id="909715614_909715614_7" type="car_average"/>
	<vehicle id="909715614_909715614_6" type="car_average"/>
	<vehicle id="909715614_909715614_5" type="car_average"/>
	<vehicle id="909715614_909715614_4" type="car_average"/>
	<vehicle id="909715614_909715614_3" type="car_average"/>
	<vehicle id="909715614_909715614_2" type="car_average"/>
	<vehicle id="909715614_909715614_1" type="car_average"/>
	<vehicle id="909715614_909715614_0" type="car_average"/>
	<vehicle id="906089233_906089233_9" type="car_average"/>
	<vehicle id="906089233_906089233_8" type="car_average"/>
	<vehicle id="906089233_906089233_7" type="car_average"/>
	<vehicle id="906089233_906089233_6" type="car_average"/>
	<vehicle id="906089233_906089233_5" type="car_average"/>
	<vehicle id="906089233_906089233_4" type="car_average"/>
	<vehicle id="906089233_906089233_3" type="car_average"/>
	<vehicle id="906089233_906089233_2" type="car_average"/>
	<vehicle id="906089233_906089233_1" type="car_average"/>
	<vehicle id="906089233_906089233_0" type="car_average"/>
	<vehicle id="905705176_905705176_9" type="car_average"/>
	<vehicle id="905705176_905705176_8" type="car_average"/>
	<vehicle id="905705176_905705176_7" type="car_average"/>
	<vehicle id="905705176_905705176_6" type="car_average"/>
	<vehicle id="905705176_905705176_5" type="car_average"/>
	<vehicle id="905705176_905705176_4" type="car_average"/>
	<vehicle id="905705176_905705176_3" type="car_average"/>
	<vehicle id="905705176_905705176_2" type="car_average"/>
	<vehicle id="905705176_905705176_1" type="car_average"/>
	<vehicle id="905705176_905705176_0" type="car_average"/>
	<vehicle id="905421492_905421492_9" type="car_average"/>
	<vehicle id="905421492_905421492_8" type="car_average"/>
	<vehicle id="905421492_905421492_7" type="car_average"/>
	<vehicle id="905421492_905421492_6" type="car_average"/>
	<vehicle id="905421492_905421492_5" type="car_average"/>
	<vehicle id="905421492_905421492_4" type="car_average"/>
	<vehicle id="905421492_905421492_3" type="car_average"/>
	<vehicle id="905421492_905421492_2" type="car_average"/>
	<vehicle id="905421492_905421492_1" type="car_average"/>
	<vehicle id="905421492_905421492_0" type="car_average"/>
	<vehicle id="905413738_905413738_9" type="car_average"/>
	<vehicle id="905413738_905413738_8" type="car_average"/>
	<vehicle id="905413738_905413738_7" type="car_average"/>
	<vehicle id="905413738_905413738_6" type="car_average"/>
	<vehicle id="905413738_905413738_5" type="car_average"/>
	<vehicle id="905413738_905413738_4" type="car_average"/>
	<vehicle id="905413738_905413738_3" type="car_average"/>
	<vehicle id="905413738_905413738_2" type="car_average"/>
	<vehicle id="905413738_905413738_1" type="car_average"/>
	<vehicle id="905413738_905413738_0" type="car_average"/>
	<vehicle id="905413737_905413737_9" type="car_average"/>
	<vehicle id="905413737_905413737_8" type="car_average"/>
	<vehicle id="905413737_905413737_7" type="car_average"/>
	<vehicle id="905413737_905413737_6" type="car_average"/>
	<vehicle id="905413737_905413737_5" type="car_average"/>
	<vehicle id="905413737_905413737_4" type="car_average"/>
	<vehicle id="905413737_905413737_3" type="car_average"/>
	<vehicle id="905413737_905413737_2" type="car_average"/>
	<vehicle id="905413737_905413737_1" type="car_average"/>
	<vehicle id="905413737_905413737_0" type="car_average"/>
	<vehicle id="905408755_905408755_9" type="car_average"/>
	<vehicle id="905408755_905408755_8" type="car_average"/>
	<vehicle id="905408755_905408755_7" type="car_average"/>
	<vehicle id="905408755_905408755_6" type="car_average"/>
	<vehicle id="905408755_905408755_5" type="car_average"/>
	<vehicle id="905408755_905408755_4" type="car_average"/>
	<vehicle id="905408755_905408755_3" type="car_average"/>
	<vehicle id="905408755_905408755_2" type="car_average"/>
	<vehicle id="905408755_905408755_1" type="car_average"/>
	<vehicle id="905408755_905408755_0" type="car_average"/>
	<vehicle id="900288014_900288014_9" type="car_average"/>
	<vehicle id="900288014_900288014_8" type="car_average"/>
	<vehicle id="900288014_900288014_7" type="car_average"/>
	<vehicle id="900288014_900288014_6" type="car_average"/>
	<vehicle id="900288014_900288014_5" type="car_average"/>
	<vehicle id="900288014_900288014_4" type="car_average"/>
	<vehicle id="900288014_900288014_3" type="car_average"/>
	<vehicle id="900288014_900288014_2" type="car_average"/>
	<vehicle id="900288014_900288014_1" type="car_average"/>
	<vehicle id="900288014_900288014_0" type="car_average"/>
	<vehicle id="900288006_900288006_9" type="car_average"/>
	<vehicle id="900288006_900288006_8" type="car_average"/>
	<vehicle id="900288006_900288006_7" type="car_average"/>
	<vehicle id="900288006_900288006_6" type="car_average"/>
	<vehicle id="900288006_900288006_5" type="car_average"/>
	<vehicle id="900288006_900288006_4" type="car_average"/>
	<vehicle id="900288006_900288006_3" type="car_average"/>
	<vehicle id="900288006_900288006_2" type="car_average"/>
	<vehicle id="900288006_900288006_1" type="car_average"/>
	<vehicle id="900288006_900288006_0" type="car_average"/>
	<vehicle id="888931102_888931102_9" type="car_average"/>
	<vehicle id="888931102_888931102_8" type="car_average"/>
	<vehicle id="888931102_888931102_7" type="car_average"/>
	<vehicle id="888931102_888931102_6" type="car_average"/>
	<vehicle id="888931102_888931102_5" type="car_average"/>
	<vehicle id="888931102_888931102_4" type="car_average"/>
	<vehicle id="888931102_888931102_3" type="car_average"/>
	<vehicle id="888931102_888931102_2" type="car_average"/>
	<vehicle id="888931102_888931102_1" type="car_average"/>
	<vehicle id="888931102_888931102_0" type="car_average"/>
	<vehicle id="875562150_875562150_9" type="car_average"/>
	<vehicle id="875562150_875562150_8" type="car_average"/>
	<vehicle id="875562150_875562150_7" type="car_average"/>
	<vehicle id="875562150_875562150_6" type="car_average"/>
	<vehicle id="875562150_875562150_5" type="car_average"/>
	<vehicle id="875562150_875562150_4" type="car_average"/>
	<vehicle id="875562150_875562150_3" type="car_average"/>
	<vehicle id="875562150_875562150_2" type="car_average"/>
	<vehicle id="875562150_875562150_1" type="car_average"/>
	<vehicle id="875562150_875562150_0" type="car_average"/>
	<vehicle id="873334554_873334554_9" type="car_average"/>
	<vehicle id="873334554_873334554_8" type="car_average"/>
	<vehicle id="873334554_873334554_7" type="car_average"/>
	<vehicle id="873334554_873334554_6" type="car_average"/>
	<vehicle id="873334554_873334554_5" type="car_average"/>
	<vehicle id="873334554_873334554_4" type="car_average"/>
	<vehicle id="873334554_873334554_3" type="car_average"/>
	<vehicle id="873334554_873334554_2" type="car_average"/>
	<vehicle id="873334554_873334554_1" type="car_average"/>
	<vehicle id="873334554_873334554_0" type="car_average"/>
	<vehicle id="856455256_856455256_9" type="car_average"/>
	<vehicle id="856455256_856455256_8" type="car_average"/>
	<vehicle id="856455256_856455256_7" type="car_average"/>
	<vehicle id="856455256_856455256_6" type="car_average"/>
	<vehicle id="856455256_856455256_5" type="car_average"/>
	<vehicle id="856455256_856455256_4" type="car_average"/>
	<vehicle id="856455256_856455256_3" type="car_average"/>
	<vehicle id="856455256_856455256_2" type="car_average"/>
	<vehicle id="856455256_856455256_1" type="car_average"/>
	<vehicle id="856455256_856455256_0" type="car_average"/>
	<vehicle id="856455220_856455220_9" type="car_average"/>
	<vehicle id="856455220_856455220_8" type="car_average"/>
	<vehicle id="856455220_856455220_7" type="car_average"/>
	<vehicle id="856455220_856455220_6" type="car_average"/>
	<vehicle id="856455220_856455220_5" type="car_average"/>
	<vehicle id="856455220_856455220_4" type="car_average"/>
	<vehicle id="856455220_856455220_3" type="car_average"/>
	<vehicle id="856455220_856455220_2" type="car_average"/>
	<vehicle id="856455220_856455220_1" type="car_average"/>
	<vehicle id="856455220_856455220_0" type="car_average"/>
	<vehicle id="849735832_849735832_9" type="car_average"/>
	<vehicle id="849735832_849735832_8" type="car_average"/>
	<vehicle id="849735832_849735832_7" type="car_average"/>
	<vehicle id="849735832_849735832_6" type="car_average"/>
	<vehicle id="849735832_849735832_5" type="car_average"/>
	<vehicle id="849735832_849735832_4" type="car_average"/>
	<vehicle id="849735832_849735832_3" type="car_average"/>
	<vehicle id="849735832_849735832_2" type="car_average"/>
	<vehicle id="849735832_849735832_1" type="car_average"/>
	<vehicle id="849735832_849735832_0" type="car_average"/>
	<vehicle id="848415330_848415330_9" type="car_average"/>
	<vehicle id="848415330_848415330_8" type="car_average"/>
	<vehicle id="848415330_848415330_7" type="car_average"/>
	<vehicle id="848415330_848415330_6" type="car_average"/>
	<vehicle id="848415330_848415330_5" type="car_average"/>
	<vehicle id="848415330_848415330_4" type="car_average"/>
	<vehicle id="848415330_848415330_3" type="car_average"/>
	<vehicle id="848415330_848415330_2" type="car_average"/>
	<vehicle id="848415330_848415330_1" type="car_average"/>
	<vehicle id="848415330_848415330_0" type="car_average"/>
	<vehicle id="823281954_823281954_9" type="car_average"/>
	<vehicle id="823281954_823281954_8" type="car_average"/>
	<vehicle id="823281954_823281954_7" type="car_average"/>
	<vehicle id="823281954_823281954_6" type="car_average"/>
	<vehicle id="823281954_823281954_5" type="car_average"/>
	<vehicle id="823281954_823281954_4" type="car_average"/>
	<vehicle id="823281954_823281954_3" type="car_average"/>
	<vehicle id="823281954_823281954_2" type="car_average"/>
	<vehicle id="823281954_823281954_1" type="car_average"/>
	<vehicle id="823281954_823281954_0" type="car_average"/>
	<vehicle id="820887147_820887147_9" type="car_average"/>
	<vehicle id="820887147_820887147_8" type="car_average"/>
	<vehicle id="820887147_820887147_7" type="car_average"/>
	<vehicle id="820887147_820887147_6" type="car_average"/>
	<vehicle id="820887147_820887147_5" type="car_average"/>
	<vehicle id="820887147_820887147_4" type="car_average"/>
	<vehicle id="820887147_820887147_3" type="car_average"/>
	<vehicle id="820887147_820887147_2" type="car_average"/>
	<vehicle id="820887147_820887147_1" type="car_average"/>
	<vehicle id="820887147_820887147_0" type="car_average"/>
	<vehicle id="809033571_809033571_9" type="car_average"/>
	<vehicle id="809033571_809033571_8" type="car_average"/>
	<vehicle id="809033571_809033571_7" type="car_average"/>
	<vehicle id="809033571_809033571_6" type="car_average"/>
	<vehicle id="809033571_809033571_5" type="car_average"/>
	<vehicle id="809033571_809033571_4" type="car_average"/>
	<vehicle id="809033571_809033571_3" type="car_average"/>
	<vehicle id="809033571_809033571_2" type="car_average"/>
	<vehicle id="809033571_809033571_1" type="car_average"/>
	<vehicle id="809033571_809033571_0" type="car_average"/>
	<vehicle id="809033570_809033570_9" type="car_average"/>
	<vehicle id="809033570_809033570_8" type="car_average"/>
	<vehicle id="809033570_809033570_7" type="car_average"/>
	<vehicle id="809033570_809033570_6" type="car_average"/>